#       
#       
#       This file was generated by PRODRG version AA180301.0717
#       PRODRG written/copyrighted by Daan van Aalten
#       and Alexander Schuettelkopf
#       
#       Questions/comments to dava@davapc1.bioch.dundee.ac.uk
#       
#       When using this software in a publication, cite:
#       A. W. Schuettelkopf and D. M. F. van Aalten (2004).
#       PRODRG - a tool for high-throughput crystallography
#       of protein-ligand complexes.
#       Acta Crystallogr. D60, 1355--1363.
#       
#       
@<TRIPOS>MOLECULE
UNL  
   10    9    1
SMALL
USER_CHARGES

PRODRG MOLECULE
@<TRIPOS>ATOM
     1  CHK       238.650    21.670     9.430   C.3       1 UNL       0.000
     2  HHK       238.942    21.173    10.355   H         1 UNL       0.000
     3  HHL       239.200    22.606     9.331   H         1 UNL       0.000
     4  HHM       238.799    21.024     8.564   H         1 UNL       0.000
     5  CHL       237.150    21.960     9.460   C.3       1 UNL       0.000
     6  HHN       236.857    22.456     8.535   H         1 UNL       0.000
     7  HHO       236.963    22.553    10.355   H         1 UNL       0.000
     8  OHQ       236.430    20.730     9.590   O.3       1 UNL       0.000
     9  OHR       234.960    20.740     9.650   O.3       1 UNL       0.000
    10  HHR       234.660    20.820    10.600   H         1 UNL       0.000
@<TRIPOS>BOND
    1    1    2 1 
    2    1    3 1 
    3    1    4 1 
    4    5    1 1 
    5    5    6 1 
    6    5    7 1 
    7    5    8 1 
    8    8    9 1 
    9    9   10 1 
@<TRIPOS>SUBSTRUCTURE
  1  UNL    1  
